April_frags
  PyMOL2.5          3D                             0

  9  9  0  0  1  0  0  0  0  0999 V2000
    4.9130    1.2120   21.5690 C   0  0  0  0  0  0  0  0  0  0  0  0
    5.4470    0.9460   20.1840 C   0  0  0  0  0  0  0  0  0  0  0  0
    4.8190    1.4870   19.0680 C   0  0  0  0  0  0  0  0  0  0  0  0
    5.3560    1.2760   17.8150 C   0  0  0  0  0  0  0  0  0  0  0  0
    6.4640    0.5590   17.5920 N   0  0  0  0  0  0  0  0  0  0  0  0
    7.0680    0.0200   18.6550 C   0  0  0  0  0  0  0  0  0  0  0  0
    6.5950    0.1860   19.9550 C   0  0  2  0  0  0  0  0  0  0  0  0
    7.2980   -0.5040   20.9930 N   0  0  0  0  0  0  0  0  0  0  0  0
    6.7250   -1.7730   21.4450 C   0  0  0  0  0  0  0  0  0  0  0  0
  1  2  1  0  0  0  0
  2  3  1  0  0  0  0
  3  4  1  0  0  0  0
  4  5  1  0  0  0  0
  5  6  1  0  0  0  0
  6  7  1  0  0  0  0
  7  8  1  0  0  0  0
  8  9  1  0  0  0  0
  2  7  1  0  0  0  0
M  END
$$$$
April_frags
  PyMOL2.5          3D                             0

  8  8  0  0  0  0  0  0  0  0999 V2000
   14.3260   -1.9850   20.5020 N   0  0  0  0  0  0  0  0  0  0  0  0
   13.6230   -1.5270   21.2760 C   0  0  0  0  0  0  0  0  0  0  0  0
   12.6970   -0.9580   22.2250 C   0  0  0  0  0  0  0  0  0  0  0  0
   13.1560   -0.1430   23.2570 C   0  0  0  0  0  0  0  0  0  0  0  0
   12.2520    0.3960   24.1570 C   0  0  0  0  0  0  0  0  0  0  0  0
   10.8950    0.1590   24.0040 C   0  0  0  0  0  0  0  0  0  0  0  0
   10.4220   -0.6260   22.9610 C   0  0  0  0  0  0  0  0  0  0  0  0
   11.3330   -1.2090   22.0870 C   0  0  0  0  0  0  0  0  0  0  0  0
  1  2  1  0  0  0  0
  2  3  1  0  0  0  0
  3  4  1  0  0  0  0
  4  5  1  0  0  0  0
  5  6  1  0  0  0  0
  6  7  1  0  0  0  0
  7  8  1  0  0  0  0
  3  8  1  0  0  0  0
M  END
$$$$
April_frags
  PyMOL2.5          3D                             0

  8  8  0  0  1  0  0  0  0  0999 V2000
    6.2910    0.7650   25.3900 F   0  0  0  0  0  0  0  0  0  0  0  0
    5.7240   -0.2900   25.9720 C   0  0  0  0  0  0  0  0  0  0  0  0
    4.4880    0.0730   26.3020 F   0  0  0  0  0  0  0  0  0  0  0  0
    5.6030   -1.2230   25.0290 F   0  0  0  0  0  0  0  0  0  0  0  0
    6.4990   -0.7730   27.1600 C   0  0  2  0  0  0  0  0  0  0  0  0
    6.9830    0.2750   28.1170 C   0  0  0  0  0  0  0  0  0  0  0  0
    7.9490   -0.6990   27.5200 C   0  0  2  0  0  0  0  0  0  0  0  0
    9.1650   -0.1920   26.9020 N   0  0  0  0  0  0  0  0  0  0  0  0
  1  2  1  0  0  0  0
  2  3  1  0  0  0  0
  2  4  1  0  0  0  0
  2  5  1  0  0  0  0
  5  6  1  0  0  0  0
  6  7  1  0  0  0  0
  7  8  1  0  0  0  0
  5  7  1  0  0  0  0
M  END
$$$$
April_frags
  PyMOL2.5          3D                             0

  8  8  0  0  1  0  0  0  0  0999 V2000
   14.0330   -1.6570   21.4790 Cl  0  0  0  0  0  0  0  0  0  0  0  0
   12.7480   -0.8870   22.3660 C   0  0  0  0  0  0  0  0  0  0  0  0
   13.0570    0.0960   23.2870 C   0  0  0  0  0  0  0  0  0  0  0  0
   12.0240    0.7090   23.9820 C   0  0  0  0  0  0  0  0  0  0  0  0
   10.7060    0.3570   23.7360 C   0  0  0  0  0  0  0  0  0  0  0  0
   10.4170   -0.6190   22.7860 C   0  0  1  0  0  0  0  0  0  0  0  0
    9.1100   -0.8310   22.3010 N   0  0  0  0  0  0  0  0  0  0  0  0
   11.4470   -1.2670   22.1130 C   0  0  0  0  0  0  0  0  0  0  0  0
  1  2  1  0  0  0  0
  2  3  1  0  0  0  0
  3  4  1  0  0  0  0
  4  5  1  0  0  0  0
  5  6  1  0  0  0  0
  6  7  1  0  0  0  0
  6  8  1  0  0  0  0
  2  8  1  0  0  0  0
M  END
$$$$
April_frags
  PyMOL2.5          3D                             0

  8  8  0  0  1  0  0  0  0  0999 V2000
    9.3810   -0.0700   23.1660 C   0  0  1  0  0  0  0  0  0  0  0  0
   10.9220   -0.2540   23.2050 C   0  0  0  0  0  0  0  0  0  0  0  0
   12.9670   -1.4490   22.2890 C   0  0  0  0  0  0  0  0  0  0  0  0
   13.4720   -1.7190   23.7010 C   0  0  0  0  0  0  0  0  0  0  0  0
   12.9860   -0.6440   24.6560 C   0  0  0  0  0  0  0  0  0  0  0  0
    8.9010    1.0610   24.0770 C   0  0  0  0  0  0  0  0  0  0  0  0
   11.4410   -1.3390   22.2510 C   0  0  0  0  0  0  0  0  0  0  0  0
   11.4610   -0.5130   24.6230 C   0  0  0  0  0  0  0  0  0  0  0  0
  1  2  1  0  0  0  0
  3  4  1  0  0  0  0
  4  5  1  0  0  0  0
  1  6  1  0  0  0  0
  3  7  1  0  0  0  0
  2  7  1  0  0  0  0
  5  8  1  0  0  0  0
  2  8  1  0  0  0  0
M  END
$$$$
April_frags
  PyMOL2.5          3D                             0

 10 11  0  0  0  0  0  0  0  0999 V2000
   13.2280   -0.8290   22.2770 C   0  0  0  0  0  0  0  0  0  0  0  0
   13.5510   -1.4790   23.4540 C   0  0  0  0  0  0  0  0  0  0  0  0
   12.5620   -2.0570   24.2470 C   0  0  0  0  0  0  0  0  0  0  0  0
   12.9650   -2.7660   25.5160 C   0  0  0  0  0  0  0  0  0  0  0  0
   11.8610   -3.6780   25.9940 C   0  0  0  0  0  0  0  0  0  0  0  0
   10.5710   -2.9590   26.0390 N   0  0  0  0  0  0  0  0  0  0  0  0
   10.1200   -2.5730   24.6980 C   0  0  0  0  0  0  0  0  0  0  0  0
   11.2160   -1.9730   23.8530 C   0  0  0  0  0  0  0  0  0  0  0  0
   10.9070   -1.3130   22.6390 C   0  0  0  0  0  0  0  0  0  0  0  0
   11.9130   -0.7470   21.8620 C   0  0  0  0  0  0  0  0  0  0  0  0
  1  2  1  0  0  0  0
  2  3  1  0  0  0  0
  3  4  1  0  0  0  0
  4  5  1  0  0  0  0
  5  6  1  0  0  0  0
  6  7  1  0  0  0  0
  7  8  1  0  0  0  0
  8  9  1  0  0  0  0
  9 10  1  0  0  0  0
  1 10  1  0  0  0  0
  3  8  1  0  0  0  0
M  END
$$$$
April_frags
  PyMOL2.5          3D                             0

  8  8  0  0  1  0  0  0  0  0999 V2000
    5.0840    1.0960   21.5800 C   0  0  0  0  0  0  0  0  0  0  0  0
    5.6370    0.7990   20.2100 C   0  0  0  0  0  0  0  0  0  0  0  0
    5.0360    1.3600   19.0890 C   0  0  0  0  0  0  0  0  0  0  0  0
    5.5830    1.1360   17.8420 C   0  0  0  0  0  0  0  0  0  0  0  0
    6.6850    0.4060   17.6460 N   0  0  0  0  0  0  0  0  0  0  0  0
    7.2500   -0.1450   18.7260 C   0  0  0  0  0  0  0  0  0  0  0  0
    6.7770    0.0020   20.0180 C   0  0  2  0  0  0  0  0  0  0  0  0
    7.4320   -0.7220   21.1760 C   0  0  0  0  0  0  0  0  0  0  0  0
  1  2  1  0  0  0  0
  2  3  1  0  0  0  0
  3  4  1  0  0  0  0
  4  5  1  0  0  0  0
  5  6  1  0  0  0  0
  6  7  1  0  0  0  0
  7  8  1  0  0  0  0
  2  7  1  0  0  0  0
M  END
$$$$
April_frags
  PyMOL2.5          3D                             0

 10 11  0  0  1  0  0  0  0  0999 V2000
    8.7980   -0.7300   22.5230 C   0  0  2  0  0  0  0  0  0  0  0  0
    8.3110   -0.0740   23.8110 C   0  0  0  0  0  0  0  0  0  0  0  0
    9.4580    0.6480   24.3380 O   0  0  0  0  0  0  0  0  0  0  0  0
   10.3000   -0.6700   22.7020 C   0  0  2  0  0  0  0  0  0  0  0  0
   10.6010    0.2500   23.6840 C   0  0  2  0  0  0  0  0  0  0  0  0
   11.9040    0.6150   23.9780 C   0  0  0  0  0  0  0  0  0  0  0  0
   12.9310    0.0090   23.2760 C   0  0  0  0  0  0  0  0  0  0  0  0
   11.3320   -1.2960   22.0190 C   0  0  0  0  0  0  0  0  0  0  0  0
   12.6320   -0.9570   22.3290 C   0  0  2  0  0  0  0  0  0  0  0  0
   13.9250   -1.8400   21.5860 Cl  0  0  0  0  0  0  0  0  0  0  0  0
  1  2  1  0  0  0  0
  2  3  1  0  0  0  0
  1  4  1  0  0  0  0
  4  5  1  0  0  0  0
  3  5  1  0  0  0  0
  5  6  1  0  0  0  0
  6  7  1  0  0  0  0
  4  8  1  0  0  0  0
  8  9  1  0  0  0  0
  7  9  1  0  0  0  0
  9 10  1  0  0  0  0
M  END
$$$$
April_frags
  PyMOL2.5          3D                             0

  9  9  0  0  0  0  0  0  0  0999 V2000
    8.6060    1.2180   20.8710 O   0  0  0  0  0  0  0  0  0  0  0  0
    8.3910    0.0660   21.2350 C   0  0  0  0  0  0  0  0  0  0  0  0
    7.1210   -0.6740   20.8590 C   0  0  0  0  0  0  0  0  0  0  0  0
    6.3520   -0.0700   19.7050 C   0  0  0  0  0  0  0  0  0  0  0  0
    6.8530   -0.0850   18.4160 C   0  0  0  0  0  0  0  0  0  0  0  0
    6.3430    0.6510   17.4220 N   0  0  0  0  0  0  0  0  0  0  0  0
    5.2900    1.4080   17.7440 C   0  0  0  0  0  0  0  0  0  0  0  0
    4.7250    1.5220   18.9510 N   0  0  0  0  0  0  0  0  0  0  0  0
    5.2780    0.7770   19.9150 C   0  0  0  0  0  0  0  0  0  0  0  0
  1  2  1  0  0  0  0
  2  3  1  0  0  0  0
  3  4  1  0  0  0  0
  4  5  1  0  0  0  0
  5  6  1  0  0  0  0
  6  7  1  0  0  0  0
  7  8  1  0  0  0  0
  8  9  1  0  0  0  0
  4  9  1  0  0  0  0
M  END
$$$$
April_frags
  PyMOL2.5          3D                             0

 10 10  0  0  0  0  0  0  0  0999 V2000
    8.6060    1.2180   20.8710 O   0  0  0  0  0  0  0  0  0  0  0  0
    8.3910    0.0660   21.2350 C   0  0  0  0  0  0  0  0  0  0  0  0
    7.1210   -0.6740   20.8590 C   0  0  0  0  0  0  0  0  0  0  0  0
    6.3520   -0.0700   19.7050 C   0  0  0  0  0  0  0  0  0  0  0  0
    6.8530   -0.0850   18.4160 C   0  0  0  0  0  0  0  0  0  0  0  0
    6.3430    0.6510   17.4220 N   0  0  0  0  0  0  0  0  0  0  0  0
    5.2900    1.4080   17.7440 C   0  0  0  0  0  0  0  0  0  0  0  0
    4.7250    1.5220   18.9510 N   0  0  0  0  0  0  0  0  0  0  0  0
    5.2780    0.7770   19.9150 C   0  0  0  0  0  0  0  0  0  0  0  0
    9.2420   -0.6540   21.9980 N   0  0  0  0  0  0  0  0  0  0  0  0
  1  2  1  0  0  0  0
  2  3  1  0  0  0  0
  3  4  1  0  0  0  0
  4  5  1  0  0  0  0
  5  6  1  0  0  0  0
  6  7  1  0  0  0  0
  7  8  1  0  0  0  0
  8  9  1  0  0  0  0
  2 10  1  0  0  0  0
  4  9  1  0  0  0  0
M  END
$$$$
April_frags
  PyMOL2.5          3D                             0

  9  9  0  0  0  0  0  0  0  0999 V2000
   12.9550   -3.6610   25.7120 C   0  0  0  0  0  0  0  0  0  0  0  0
   13.5400   -2.3480   25.3060 C   0  0  0  0  0  0  0  0  0  0  0  0
   14.6330   -2.0020   25.7060 O   0  0  0  0  0  0  0  0  0  0  0  0
   12.8210   -1.5590   24.4740 N   0  0  0  0  0  0  0  0  0  0  0  0
   12.6810   -1.8540   23.0470 C   0  0  0  0  0  0  0  0  0  0  0  0
   11.2110   -2.0690   22.7070 C   0  0  0  0  0  0  0  0  0  0  0  0
   10.4080   -0.8960   23.0760 N   0  0  0  0  0  0  0  0  0  0  0  0
   10.5520   -0.6190   24.5180 C   0  0  0  0  0  0  0  0  0  0  0  0
   12.0200   -0.3960   24.8830 C   0  0  0  0  0  0  0  0  0  0  0  0
  1  2  1  0  0  0  0
  2  3  1  0  0  0  0
  2  4  1  0  0  0  0
  4  5  1  0  0  0  0
  5  6  1  0  0  0  0
  6  7  1  0  0  0  0
  7  8  1  0  0  0  0
  8  9  1  0  0  0  0
  4  9  1  0  0  0  0
M  END
$$$$
April_frags
  PyMOL2.5          3D                             0

 10 10  0  0  0  0  0  0  0  0999 V2000
   12.9550   -3.6610   25.7120 C   0  0  0  0  0  0  0  0  0  0  0  0
   13.5400   -2.3480   25.3060 C   0  0  0  0  0  0  0  0  0  0  0  0
   14.6330   -2.0020   25.7060 O   0  0  0  0  0  0  0  0  0  0  0  0
   12.8210   -1.5590   24.4740 N   0  0  0  0  0  0  0  0  0  0  0  0
   12.6810   -1.8540   23.0470 C   0  0  0  0  0  0  0  0  0  0  0  0
   11.2110   -2.0690   22.7070 C   0  0  0  0  0  0  0  0  0  0  0  0
   10.4080   -0.8960   23.0760 N   0  0  0  0  0  0  0  0  0  0  0  0
    9.0080   -1.1110   22.7160 C   0  0  0  0  0  0  0  0  0  0  0  0
   10.5520   -0.6190   24.5180 C   0  0  0  0  0  0  0  0  0  0  0  0
   12.0200   -0.3960   24.8830 C   0  0  0  0  0  0  0  0  0  0  0  0
  1  2  1  0  0  0  0
  2  3  1  0  0  0  0
  2  4  1  0  0  0  0
  4  5  1  0  0  0  0
  5  6  1  0  0  0  0
  6  7  1  0  0  0  0
  7  8  1  0  0  0  0
  7  9  1  0  0  0  0
  9 10  1  0  0  0  0
  4 10  1  0  0  0  0
M  END
$$$$
April_frags
  PyMOL2.5          3D                             0

 12 13  0  0  1  0  0  0  0  0999 V2000
    9.2010   -1.1530   23.6250 C   0  0  1  0  0  0  0  0  0  0  0  0
    9.5910   -2.4750   23.3970 C   0  0  0  0  0  0  0  0  0  0  0  0
    9.2250   -3.4710   24.2850 C   0  0  0  0  0  0  0  0  0  0  0  0
    8.4650   -3.1820   25.4190 C   0  0  2  0  0  0  0  0  0  0  0  0
    8.0500   -1.8640   25.6150 C   0  0  0  0  0  0  0  0  0  0  0  0
    8.4080   -0.8620   24.7340 C   0  0  0  0  0  0  0  0  0  0  0  0
    8.1620   -4.2320   26.4220 C   0  0  1  0  0  0  0  0  0  0  0  0
    9.1400   -5.1310   26.6500 N   0  0  0  0  0  0  0  0  0  0  0  0
    8.9380   -6.0350   27.6260 C   0  0  0  0  0  0  0  0  0  0  0  0
    7.7910   -6.0910   28.3970 C   0  0  0  0  0  0  0  0  0  0  0  0
    6.7930   -5.1750   28.1420 C   0  0  0  0  0  0  0  0  0  0  0  0
    6.9680   -4.2340   27.1400 C   0  0  0  0  0  0  0  0  0  0  0  0
  1  2  1  0  0  0  0
  2  3  1  0  0  0  0
  3  4  1  0  0  0  0
  4  5  1  0  0  0  0
  5  6  1  0  0  0  0
  1  6  1  0  0  0  0
  4  7  1  0  0  0  0
  7  8  1  0  0  0  0
  8  9  1  0  0  0  0
  9 10  1  0  0  0  0
 10 11  1  0  0  0  0
  7 12  1  0  0  0  0
 11 12  1  0  0  0  0
M  END
$$$$
April_frags
  PyMOL2.5          3D                             0

 10 10  0  0  1  0  0  0  0  0999 V2000
    9.2180    0.9180   20.9910 O   0  0  0  0  0  0  0  0  0  0  0  0
    8.5900   -0.0110   21.4930 C   0  0  0  0  0  0  0  0  0  0  0  0
    9.1360   -0.7650   22.6920 C   0  0  0  0  0  0  0  0  0  0  0  0
    7.4020   -0.4580   21.0370 N   0  0  0  0  0  0  0  0  0  0  0  0
    6.6960    0.0510   19.9280 C   0  0  1  0  0  0  0  0  0  0  0  0
    5.5200    0.7770   20.0740 C   0  0  0  0  0  0  0  0  0  0  0  0
    4.9750    1.4080   18.9710 C   0  0  0  0  0  0  0  0  0  0  0  0
    5.6280    1.2910   17.7560 C   0  0  0  0  0  0  0  0  0  0  0  0
    6.7460    0.5810   17.5820 N   0  0  0  0  0  0  0  0  0  0  0  0
    7.2530   -0.0360   18.6530 C   0  0  0  0  0  0  0  0  0  0  0  0
  1  2  1  0  0  0  0
  2  3  1  0  0  0  0
  2  4  1  0  0  0  0
  4  5  1  0  0  0  0
  5  6  1  0  0  0  0
  6  7  1  0  0  0  0
  7  8  1  0  0  0  0
  8  9  1  0  0  0  0
  9 10  1  0  0  0  0
  5 10  1  0  0  0  0
M  END
$$$$
April_frags
  PyMOL2.5          3D                             0

  8  8  0  0  1  0  0  0  0  0999 V2000
    3.7030    2.2940   19.4460 C   0  0  0  0  0  0  0  0  0  0  0  0
    4.8720    1.4040   19.0970 C   0  0  0  0  0  0  0  0  0  0  0  0
    5.3380    1.2860   17.7930 C   0  0  0  0  0  0  0  0  0  0  0  0
    6.3890    0.5350   17.4350 N   0  0  0  0  0  0  0  0  0  0  0  0
    7.0170   -0.1460   18.3950 C   0  0  0  0  0  0  0  0  0  0  0  0
    6.6300   -0.1170   19.7300 C   0  0  1  0  0  0  0  0  0  0  0  0
    7.3530   -0.7800   20.7430 N   0  0  0  0  0  0  0  0  0  0  0  0
    5.5360    0.6730   20.0690 C   0  0  0  0  0  0  0  0  0  0  0  0
  1  2  1  0  0  0  0
  2  3  1  0  0  0  0
  3  4  1  0  0  0  0
  4  5  1  0  0  0  0
  5  6  1  0  0  0  0
  6  7  1  0  0  0  0
  6  8  1  0  0  0  0
  2  8  1  0  0  0  0
M  END
$$$$
April_frags
  PyMOL2.5          3D                             0

 10 10  0  0  0  0  0  0  0  0999 V2000
    8.2270    0.0940   25.1670 O   0  0  0  0  0  0  0  0  0  0  0  0
    8.5110   -0.9340   24.5560 C   0  0  0  0  0  0  0  0  0  0  0  0
    7.6800   -2.1940   24.6950 C   0  0  0  0  0  0  0  0  0  0  0  0
    8.4950   -3.4220   25.0350 C   0  0  0  0  0  0  0  0  0  0  0  0
    8.3630   -4.0680   26.2520 C   0  0  0  0  0  0  0  0  0  0  0  0
    9.1220   -5.1870   26.5270 C   0  0  0  0  0  0  0  0  0  0  0  0
    9.9990   -5.6350   25.5600 C   0  0  0  0  0  0  0  0  0  0  0  0
   10.1490   -5.0420   24.3700 N   0  0  0  0  0  0  0  0  0  0  0  0
    9.4000   -3.9580   24.1300 C   0  0  0  0  0  0  0  0  0  0  0  0
    9.5260   -1.0020   23.6980 N   0  0  0  0  0  0  0  0  0  0  0  0
  1  2  1  0  0  0  0
  2  3  1  0  0  0  0
  3  4  1  0  0  0  0
  4  5  1  0  0  0  0
  5  6  1  0  0  0  0
  6  7  1  0  0  0  0
  7  8  1  0  0  0  0
  8  9  1  0  0  0  0
  2 10  1  0  0  0  0
  4  9  1  0  0  0  0
M  END
$$$$
April_frags
  PyMOL2.5          3D                             0

  9  9  0  0  0  0  0  0  0  0999 V2000
    8.2270    0.0940   25.1670 O   0  0  0  0  0  0  0  0  0  0  0  0
    8.5110   -0.9340   24.5560 C   0  0  0  0  0  0  0  0  0  0  0  0
    7.6800   -2.1940   24.6950 C   0  0  0  0  0  0  0  0  0  0  0  0
    8.4950   -3.4220   25.0350 C   0  0  0  0  0  0  0  0  0  0  0  0
    8.3630   -4.0680   26.2520 C   0  0  0  0  0  0  0  0  0  0  0  0
    9.1220   -5.1870   26.5270 C   0  0  0  0  0  0  0  0  0  0  0  0
    9.9990   -5.6350   25.5600 C   0  0  0  0  0  0  0  0  0  0  0  0
   10.1490   -5.0420   24.3700 N   0  0  0  0  0  0  0  0  0  0  0  0
    9.4000   -3.9580   24.1300 C   0  0  0  0  0  0  0  0  0  0  0  0
  1  2  1  0  0  0  0
  2  3  1  0  0  0  0
  3  4  1  0  0  0  0
  4  5  1  0  0  0  0
  5  6  1  0  0  0  0
  6  7  1  0  0  0  0
  7  8  1  0  0  0  0
  8  9  1  0  0  0  0
  4  9  1  0  0  0  0
M  END
$$$$
April_frags
  PyMOL2.5          3D                             0

  8  8  0  0  0  0  0  0  0  0999 V2000
    4.8660    1.3370   21.6270 C   0  0  0  0  0  0  0  0  0  0  0  0
    5.3180    1.0400   20.2200 C   0  0  0  0  0  0  0  0  0  0  0  0
    4.7120    1.6630   19.1410 C   0  0  0  0  0  0  0  0  0  0  0  0
    5.1570    1.3940   17.8690 C   0  0  0  0  0  0  0  0  0  0  0  0
    6.1600    0.5470   17.6010 N   0  0  0  0  0  0  0  0  0  0  0  0
    6.7660   -0.0810   18.6160 C   0  0  0  0  0  0  0  0  0  0  0  0
    7.8820   -1.0140   18.2540 C   0  0  0  0  0  0  0  0  0  0  0  0
    6.3610    0.1480   19.9460 C   0  0  0  0  0  0  0  0  0  0  0  0
  1  2  1  0  0  0  0
  2  3  1  0  0  0  0
  3  4  1  0  0  0  0
  4  5  1  0  0  0  0
  5  6  1  0  0  0  0
  6  7  1  0  0  0  0
  6  8  1  0  0  0  0
  2  8  1  0  0  0  0
M  END
$$$$
April_frags
  PyMOL2.5          3D                             0

  9  9  0  0  0  0  0  0  0  0999 V2000
   14.3990   -1.9780   20.5260 N   0  0  0  0  0  0  0  0  0  0  0  0
   13.6900   -1.4980   21.2810 C   0  0  0  0  0  0  0  0  0  0  0  0
   12.7640   -0.9010   22.2100 C   0  0  0  0  0  0  0  0  0  0  0  0
   13.1990   -0.1020   23.2680 C   0  0  0  0  0  0  0  0  0  0  0  0
   12.3660    0.4740   24.1430 N   0  0  0  0  0  0  0  0  0  0  0  0
   11.0520    0.2600   23.9740 C   0  0  0  0  0  0  0  0  0  0  0  0
   10.5110   -0.5150   22.9590 C   0  0  0  0  0  0  0  0  0  0  0  0
    9.0180   -0.6630   22.7930 C   0  0  0  0  0  0  0  0  0  0  0  0
   11.3960   -1.1080   22.0640 C   0  0  0  0  0  0  0  0  0  0  0  0
  1  2  1  0  0  0  0
  2  3  1  0  0  0  0
  3  4  1  0  0  0  0
  4  5  1  0  0  0  0
  5  6  1  0  0  0  0
  6  7  1  0  0  0  0
  7  8  1  0  0  0  0
  7  9  1  0  0  0  0
  3  9  1  0  0  0  0
M  END
$$$$
April_frags
  PyMOL2.5          3D                             0

  8  8  0  0  0  0  0  0  0  0999 V2000
   14.3990   -1.9780   20.5260 N   0  0  0  0  0  0  0  0  0  0  0  0
   13.6900   -1.4980   21.2810 C   0  0  0  0  0  0  0  0  0  0  0  0
   12.7640   -0.9010   22.2100 C   0  0  0  0  0  0  0  0  0  0  0  0
   13.1990   -0.1020   23.2680 C   0  0  0  0  0  0  0  0  0  0  0  0
   12.3660    0.4740   24.1430 N   0  0  0  0  0  0  0  0  0  0  0  0
   11.0520    0.2600   23.9740 C   0  0  0  0  0  0  0  0  0  0  0  0
   10.5110   -0.5150   22.9590 C   0  0  0  0  0  0  0  0  0  0  0  0
   11.3960   -1.1080   22.0640 C   0  0  0  0  0  0  0  0  0  0  0  0
  1  2  1  0  0  0  0
  2  3  1  0  0  0  0
  3  4  1  0  0  0  0
  4  5  1  0  0  0  0
  5  6  1  0  0  0  0
  6  7  1  0  0  0  0
  7  8  1  0  0  0  0
  3  8  1  0  0  0  0
M  END
$$$$
April_frags
  PyMOL2.5          3D                             0

 10 11  0  0  1  0  0  0  0  0999 V2000
   14.1000   -1.4530   21.0080 F   0  0  0  0  0  0  0  0  0  0  0  0
   13.3320   -0.8700   21.9670 C   0  0  0  0  0  0  0  0  0  0  0  0
   13.9400   -0.0140   22.8580 C   0  0  0  0  0  0  0  0  0  0  0  0
   13.1840    0.5030   23.8960 C   0  0  0  0  0  0  0  0  0  0  0  0
   11.8270    0.1930   24.0090 C   0  0  1  0  0  0  0  0  0  0  0  0
   10.7710    0.5950   24.8910 C   0  0  0  0  0  0  0  0  0  0  0  0
    9.6340    0.0290   24.4300 C   0  0  0  0  0  0  0  0  0  0  0  0
    9.8920   -0.7160   23.3030 N   0  0  0  0  0  0  0  0  0  0  0  0
   11.2480   -0.6440   23.0390 C   0  0  0  0  0  0  0  0  0  0  0  0
   11.9980   -1.2050   22.0130 C   0  0  0  0  0  0  0  0  0  0  0  0
  1  2  1  0  0  0  0
  2  3  1  0  0  0  0
  3  4  1  0  0  0  0
  4  5  1  0  0  0  0
  5  6  1  0  0  0  0
  6  7  1  0  0  0  0
  7  8  1  0  0  0  0
  8  9  1  0  0  0  0
  9 10  1  0  0  0  0
  2 10  1  0  0  0  0
  5  9  1  0  0  0  0
M  END
$$$$
April_frags
  PyMOL2.5          3D                             0

  9  9  0  0  0  0  0  0  0  0999 V2000
   13.2070   -1.6960   22.0270 F   0  0  0  0  0  0  0  0  0  0  0  0
   13.0310   -1.6670   23.3690 C   0  0  0  0  0  0  0  0  0  0  0  0
   13.8430   -2.4500   24.1570 C   0  0  0  0  0  0  0  0  0  0  0  0
   13.6920   -2.3820   25.5320 C   0  0  0  0  0  0  0  0  0  0  0  0
   12.7580   -1.5300   26.0830 C   0  0  0  0  0  0  0  0  0  0  0  0
   11.9480   -0.7550   25.2620 C   0  0  0  0  0  0  0  0  0  0  0  0
   12.0570   -0.8270   23.8730 C   0  0  0  0  0  0  0  0  0  0  0  0
   11.1090   -0.0290   23.0020 C   0  0  0  0  0  0  0  0  0  0  0  0
    9.9620   -0.8650   22.3880 C   0  0  0  0  0  0  0  0  0  0  0  0
  1  2  1  0  0  0  0
  2  3  1  0  0  0  0
  3  4  1  0  0  0  0
  4  5  1  0  0  0  0
  5  6  1  0  0  0  0
  6  7  1  0  0  0  0
  7  8  1  0  0  0  0
  8  9  1  0  0  0  0
  2  7  1  0  0  0  0
M  END
$$$$
April_frags
  PyMOL2.5          3D                             0

  8  8  0  0  0  0  0  0  0  0999 V2000
   13.2070   -1.6960   22.0270 F   0  0  0  0  0  0  0  0  0  0  0  0
   13.0310   -1.6670   23.3690 C   0  0  0  0  0  0  0  0  0  0  0  0
   13.8430   -2.4500   24.1570 C   0  0  0  0  0  0  0  0  0  0  0  0
   13.6920   -2.3820   25.5320 C   0  0  0  0  0  0  0  0  0  0  0  0
   12.7580   -1.5300   26.0830 C   0  0  0  0  0  0  0  0  0  0  0  0
   11.9480   -0.7550   25.2620 C   0  0  0  0  0  0  0  0  0  0  0  0
   12.0570   -0.8270   23.8730 C   0  0  0  0  0  0  0  0  0  0  0  0
   11.1090   -0.0290   23.0020 C   0  0  0  0  0  0  0  0  0  0  0  0
  1  2  1  0  0  0  0
  2  3  1  0  0  0  0
  3  4  1  0  0  0  0
  4  5  1  0  0  0  0
  5  6  1  0  0  0  0
  6  7  1  0  0  0  0
  7  8  1  0  0  0  0
  2  7  1  0  0  0  0
M  END
$$$$
April_frags
  PyMOL2.5          3D                             0

 11 12  0  0  0  0  0  0  0  0999 V2000
    6.5150   -4.0840   27.0560 C   0  0  0  0  0  0  0  0  0  0  0  0
    6.2300   -2.9220   26.3520 C   0  0  0  0  0  0  0  0  0  0  0  0
    7.0810   -2.4670   25.3890 C   0  0  0  0  0  0  0  0  0  0  0  0
    8.2730   -3.1720   25.0820 C   0  0  0  0  0  0  0  0  0  0  0  0
    8.5560   -4.3610   25.8010 C   0  0  0  0  0  0  0  0  0  0  0  0
    7.6530   -4.7950   26.7980 C   0  0  0  0  0  0  0  0  0  0  0  0
    9.6620   -5.1290   25.5470 N   0  0  0  0  0  0  0  0  0  0  0  0
   10.4800   -4.7090   24.5980 C   0  0  0  0  0  0  0  0  0  0  0  0
   10.2990   -3.5600   23.8470 C   0  0  0  0  0  0  0  0  0  0  0  0
    9.1940   -2.7650   24.0670 C   0  0  0  0  0  0  0  0  0  0  0  0
    8.9660   -1.6160   23.3610 N   0  0  0  0  0  0  0  0  0  0  0  0
  1  2  1  0  0  0  0
  2  3  1  0  0  0  0
  3  4  1  0  0  0  0
  4  5  1  0  0  0  0
  5  6  1  0  0  0  0
  5  7  1  0  0  0  0
  7  8  1  0  0  0  0
  8  9  1  0  0  0  0
  9 10  1  0  0  0  0
 10 11  1  0  0  0  0
  1  6  1  0  0  0  0
  4 10  1  0  0  0  0
M  END
$$$$
April_frags
  PyMOL2.5          3D                             0

 10 11  0  0  0  0  0  0  0  0999 V2000
    6.5150   -4.0840   27.0560 C   0  0  0  0  0  0  0  0  0  0  0  0
    6.2300   -2.9220   26.3520 C   0  0  0  0  0  0  0  0  0  0  0  0
    7.0810   -2.4670   25.3890 C   0  0  0  0  0  0  0  0  0  0  0  0
    8.2730   -3.1720   25.0820 C   0  0  0  0  0  0  0  0  0  0  0  0
    8.5560   -4.3610   25.8010 C   0  0  0  0  0  0  0  0  0  0  0  0
    7.6530   -4.7950   26.7980 C   0  0  0  0  0  0  0  0  0  0  0  0
    9.6620   -5.1290   25.5470 N   0  0  0  0  0  0  0  0  0  0  0  0
   10.4800   -4.7090   24.5980 C   0  0  0  0  0  0  0  0  0  0  0  0
   10.2990   -3.5600   23.8470 C   0  0  0  0  0  0  0  0  0  0  0  0
    9.1940   -2.7650   24.0670 C   0  0  0  0  0  0  0  0  0  0  0  0
  1  2  1  0  0  0  0
  2  3  1  0  0  0  0
  3  4  1  0  0  0  0
  4  5  1  0  0  0  0
  5  6  1  0  0  0  0
  5  7  1  0  0  0  0
  7  8  1  0  0  0  0
  8  9  1  0  0  0  0
  9 10  1  0  0  0  0
  1  6  1  0  0  0  0
  4 10  1  0  0  0  0
M  END
$$$$
April_frags
  PyMOL2.5          3D                             0

 10 11  0  0  1  0  0  0  0  0999 V2000
    8.8980   -0.4090   22.8400 C   0  0  1  0  0  0  0  0  0  0  0  0
   10.4110   -0.4660   22.9230 C   0  0  1  0  0  0  0  0  0  0  0  0
   11.1680   -1.1360   21.9660 C   0  0  0  0  0  0  0  0  0  0  0  0
   12.5510   -1.0680   21.9810 C   0  0  0  0  0  0  0  0  0  0  0  0
   13.1990   -0.3210   22.9370 C   0  0  0  0  0  0  0  0  0  0  0  0
   12.4730    0.3350   23.9230 C   0  0  0  0  0  0  0  0  0  0  0  0
   11.0880    0.2360   23.9250 C   0  0  0  0  0  0  0  0  0  0  0  0
   10.4470    0.8220   24.9910 O   0  0  0  0  0  0  0  0  0  0  0  0
    9.1110    0.3360   25.2460 C   0  0  0  0  0  0  0  0  0  0  0  0
    8.2440    0.3780   24.0080 C   0  0  0  0  0  0  0  0  0  0  0  0
  1  2  1  0  0  0  0
  2  3  1  0  0  0  0
  3  4  1  0  0  0  0
  4  5  1  0  0  0  0
  5  6  1  0  0  0  0
  2  7  1  0  0  0  0
  6  7  1  0  0  0  0
  7  8  1  0  0  0  0
  8  9  1  0  0  0  0
  9 10  1  0  0  0  0
  1 10  1  0  0  0  0
M  END
$$$$
April_frags
  PyMOL2.5          3D                             0

  9  9  0  0  1  0  0  0  0  0999 V2000
   12.0190    3.0300   23.7020 C   0  0  2  0  0  0  0  0  0  0  0  0
   13.1530    3.7020   23.2440 C   0  0  0  0  0  0  0  0  0  0  0  0
   13.4250    5.0000   23.6470 C   0  0  0  0  0  0  0  0  0  0  0  0
   11.1780    3.7440   24.5480 C   0  0  0  0  0  0  0  0  0  0  0  0
   10.0920    3.1420   25.0600 F   0  0  0  0  0  0  0  0  0  0  0  0
   11.4470    5.0380   24.9300 C   0  0  0  0  0  0  0  0  0  0  0  0
   10.5780    5.6760   25.7380 F   0  0  0  0  0  0  0  0  0  0  0  0
   12.5870    5.6970   24.5220 C   0  0  1  0  0  0  0  0  0  0  0  0
   12.9850    7.0490   25.0550 C   0  0  0  0  0  0  0  0  0  0  0  0
  1  2  1  0  0  0  0
  2  3  1  0  0  0  0
  1  4  1  0  0  0  0
  4  5  1  0  0  0  0
  4  6  1  0  0  0  0
  6  7  1  0  0  0  0
  6  8  1  0  0  0  0
  3  8  1  0  0  0  0
  8  9  1  0  0  0  0
M  END
$$$$
April_frags
  PyMOL2.5          3D                             0

  8  8  0  0  1  0  0  0  0  0999 V2000
   13.6820   -1.7490   22.0380 Cl  0  0  0  0  0  0  0  0  0  0  0  0
   12.3890   -0.6700   22.4400 C   0  0  1  0  0  0  0  0  0  0  0  0
   12.6810    0.5220   23.0690 C   0  0  0  0  0  0  0  0  0  0  0  0
   11.6490    1.4120   23.3220 C   0  0  0  0  0  0  0  0  0  0  0  0
   10.3540    1.1100   22.9360 C   0  0  0  0  0  0  0  0  0  0  0  0
   10.0840   -0.0980   22.3000 C   0  0  0  0  0  0  0  0  0  0  0  0
    8.7910   -0.4360   21.8680 N   0  0  0  0  0  0  0  0  0  0  0  0
   11.1050   -1.0080   22.0670 C   0  0  0  0  0  0  0  0  0  0  0  0
  1  2  1  0  0  0  0
  2  3  1  0  0  0  0
  3  4  1  0  0  0  0
  4  5  1  0  0  0  0
  5  6  1  0  0  0  0
  6  7  1  0  0  0  0
  6  8  1  0  0  0  0
  2  8  1  0  0  0  0
M  END
$$$$
April_frags
  PyMOL2.5          3D                             0

  8  8  0  0  1  0  0  0  0  0999 V2000
    6.5860    0.4940   17.2880 N   0  0  0  0  0  0  0  0  0  0  0  0
    5.6370    0.6650   19.8880 C   0  0  0  0  0  0  0  0  0  0  0  0
    4.9610    1.3070   18.8610 C   0  0  0  0  0  0  0  0  0  0  0  0
    6.8020   -0.0800   19.6140 C   0  0  1  0  0  0  0  0  0  0  0  0
    7.2190   -0.1280   18.2870 C   0  0  0  0  0  0  0  0  0  0  0  0
    4.1090    1.4420   21.5650 C   0  0  0  0  0  0  0  0  0  0  0  0
    5.2910    0.7190   21.2100 O   0  0  0  0  0  0  0  0  0  0  0  0
    5.4820    1.1910   17.5870 C   0  0  0  0  0  0  0  0  0  0  0  0
  2  3  1  0  0  0  0
  2  4  1  0  0  0  0
  4  5  1  0  0  0  0
  1  5  1  0  0  0  0
  6  7  1  0  0  0  0
  2  7  1  0  0  0  0
  3  8  1  0  0  0  0
  1  8  1  0  0  0  0
M  END
$$$$
April_frags
  PyMOL2.5          3D                             0

  8  8  0  0  1  0  0  0  0  0999 V2000
   14.4980   -1.7120   20.4870 N   0  0  0  0  0  0  0  0  0  0  0  0
   13.7650   -1.3000   21.2580 C   0  0  0  0  0  0  0  0  0  0  0  0
   12.8060   -0.8090   22.2130 C   0  0  0  0  0  0  0  0  0  0  0  0
   13.1810    0.0030   23.2820 C   0  0  0  0  0  0  0  0  0  0  0  0
   12.3180    0.4450   24.2060 N   0  0  0  0  0  0  0  0  0  0  0  0
   11.0290    0.1060   24.0550 C   0  0  0  0  0  0  0  0  0  0  0  0
   11.4640   -1.1590   22.0960 C   0  0  0  0  0  0  0  0  0  0  0  0
   10.5410   -0.6720   23.0150 C   0  0  2  0  0  0  0  0  0  0  0  0
  1  2  1  0  0  0  0
  2  3  1  0  0  0  0
  3  4  1  0  0  0  0
  4  5  1  0  0  0  0
  5  6  1  0  0  0  0
  3  7  1  0  0  0  0
  7  8  1  0  0  0  0
  6  8  1  0  0  0  0
M  END
$$$$
April_frags
  PyMOL2.5          3D                             0

  9  9  0  0  1  0  0  0  0  0999 V2000
   14.4980   -1.7120   20.4870 N   0  0  0  0  0  0  0  0  0  0  0  0
   13.7650   -1.3000   21.2580 C   0  0  0  0  0  0  0  0  0  0  0  0
   12.8060   -0.8090   22.2130 C   0  0  0  0  0  0  0  0  0  0  0  0
   13.1810    0.0030   23.2820 C   0  0  0  0  0  0  0  0  0  0  0  0
   12.3180    0.4450   24.2060 N   0  0  0  0  0  0  0  0  0  0  0  0
   11.0290    0.1060   24.0550 C   0  0  0  0  0  0  0  0  0  0  0  0
   10.5410   -0.6720   23.0150 C   0  0  1  0  0  0  0  0  0  0  0  0
    9.0560   -0.8520   22.7980 C   0  0  0  0  0  0  0  0  0  0  0  0
   11.4640   -1.1590   22.0960 C   0  0  0  0  0  0  0  0  0  0  0  0
  1  2  1  0  0  0  0
  2  3  1  0  0  0  0
  3  4  1  0  0  0  0
  4  5  1  0  0  0  0
  5  6  1  0  0  0  0
  6  7  1  0  0  0  0
  7  8  1  0  0  0  0
  7  9  1  0  0  0  0
  3  9  1  0  0  0  0
M  END
$$$$
April_frags
  PyMOL2.5          3D                             0

  8  8  0  0  0  0  0  0  0  0999 V2000
   14.4550   -1.8900   20.5250 N   0  0  0  0  0  0  0  0  0  0  0  0
   13.7190   -1.4490   21.2790 C   0  0  0  0  0  0  0  0  0  0  0  0
   12.8220   -0.8860   22.2560 C   0  0  0  0  0  0  0  0  0  0  0  0
   13.3240   -0.1480   23.3250 C   0  0  0  0  0  0  0  0  0  0  0  0
   12.4500    0.4340   24.2280 C   0  0  0  0  0  0  0  0  0  0  0  0
   11.0820    0.2780   24.0680 C   0  0  0  0  0  0  0  0  0  0  0  0
   10.5670   -0.4600   23.0080 C   0  0  0  0  0  0  0  0  0  0  0  0
   11.4470   -1.0480   22.1030 C   0  0  0  0  0  0  0  0  0  0  0  0
  1  2  1  0  0  0  0
  2  3  1  0  0  0  0
  3  4  1  0  0  0  0
  4  5  1  0  0  0  0
  5  6  1  0  0  0  0
  6  7  1  0  0  0  0
  7  8  1  0  0  0  0
  3  8  1  0  0  0  0
M  END
$$$$
